*HEADING
Cook trapezoidal panel, plane stress
**Converged free mid-edge displacement = 23.97
*PART, NAME=part1
*END PART
*ASSEMBLY, NAME=ASSEM1
*INSTANCE, NAME=INSTNC1, PART=PART1
*NODE
1,0.0,0.0
2,1.6,1.4666666666666666
3,3.2,2.933333333333333
4,4.8,4.3999999999999995
5,6.4,5.866666666666666
6,8.0,7.333333333333333
7,9.6,8.799999999999999
8,11.2,10.266666666666666
9,12.8,11.733333333333333
10,14.4,13.2
11,16.0,14.666666666666666
12,17.6,16.133333333333333
13,19.2,17.599999999999998
14,20.8,19.066666666666666
15,22.4,20.53333333333333
16,24.0,22.0
17,25.6,23.466666666666665
18,27.2,24.933333333333334
19,28.8,26.4
20,30.4,27.866666666666667
** ... 941 like lines cut
**We are assuming three node triangles in plane-stress
**CPS3 are pretty poor-accuracy elements, but here we don't care about it.
*ELEMENT, TYPE =CPS3, ELSET=AllElements
1,1,2,32
2,2,33,32
3,32,33,63
4,33,64,63
5,63,64,94
6,64,95,94
7,94,95,125
8,95,126,125
9,125,126,156
10,126,157,156
11,156,157,187
12,157,188,187
13,187,188,218
14,188,219,218
15,218,219,249
16,219,250,249
17,249,250,280
18,250,281,280
19,280,281,311
20,281,312,311
** ... 1780 like lines cut
*NSET, NSET=clamped
1,
32,
63,
94,
125,
156,
187,
218,
249,
280,
311,
342,
373,
404,
435,
466,
497,
528,
559,
590,
** ... 11 like lines cut
*ORIENTATION,NAME=GlobalOrientation
1.0,0.0,0.0,0.0,1.0,0.0
1,0.0
*SOLID SECTION,MATERIAL=elasticity,ORIENTATION =GlobalOrientation,ELSET=AllElements
1.0,
*END INSTANCE
*END ASSEMBLY
*MATERIAL,NAME=elasticity
*ELASTIC,TYPE=ISOTROPIC 
1.0,0.3333333333333333
*STEP,PERTURBATION
*STATIC
*BOUNDARY
ASSEM1.INSTNC1.clamped,1
*BOUNDARY
ASSEM1.INSTNC1.clamped,2
**Concentrated loads: we are assuming that the elements on the boundary
**have two nodes each and also that they are the same length.
**Then the concentrated loads below will be correctly lumped.
*CLOAD
ASSEM1.INSTNC1.31,2,0.016666666666666666
*CLOAD
ASSEM1.INSTNC1.62,2,0.03333333333333333
*CLOAD
ASSEM1.INSTNC1.93,2,0.03333333333333333
*CLOAD
ASSEM1.INSTNC1.124,2,0.03333333333333333
*CLOAD
ASSEM1.INSTNC1.155,2,0.03333333333333333
*CLOAD
ASSEM1.INSTNC1.186,2,0.03333333333333333
*CLOAD
ASSEM1.INSTNC1.217,2,0.03333333333333333
*CLOAD
ASSEM1.INSTNC1.248,2,0.03333333333333333
*CLOAD
ASSEM1.INSTNC1.279,2,0.03333333333333333
*CLOAD
ASSEM1.INSTNC1.310,2,0.03333333333333333
*CLOAD
ASSEM1.INSTNC1.341,2,0.03333333333333333
*CLOAD
ASSEM1.INSTNC1.372,2,0.03333333333333333
*CLOAD
ASSEM1.INSTNC1.403,2,0.03333333333333333
*CLOAD
ASSEM1.INSTNC1.434,2,0.03333333333333333
*CLOAD
ASSEM1.INSTNC1.465,2,0.03333333333333333
*CLOAD
ASSEM1.INSTNC1.496,2,0.03333333333333333
*CLOAD
ASSEM1.INSTNC1.527,2,0.03333333333333333
*CLOAD
ASSEM1.INSTNC1.558,2,0.03333333333333333
*CLOAD
ASSEM1.INSTNC1.589,2,0.03333333333333333
*CLOAD
ASSEM1.INSTNC1.620,2,0.03333333333333333
*CLOAD
ASSEM1.INSTNC1.651,2,0.03333333333333333
*CLOAD
ASSEM1.INSTNC1.682,2,0.03333333333333333
*CLOAD
ASSEM1.INSTNC1.713,2,0.03333333333333333
*CLOAD
ASSEM1.INSTNC1.744,2,0.03333333333333333
*CLOAD
ASSEM1.INSTNC1.775,2,0.03333333333333333
*CLOAD
ASSEM1.INSTNC1.806,2,0.03333333333333333
*CLOAD
ASSEM1.INSTNC1.837,2,0.03333333333333333
*CLOAD
ASSEM1.INSTNC1.868,2,0.03333333333333333
*CLOAD
ASSEM1.INSTNC1.899,2,0.03333333333333333
*CLOAD
ASSEM1.INSTNC1.930,2,0.03333333333333333
*CLOAD
ASSEM1.INSTNC1.961,2,0.016666666666666666
*END STEP
