*Heading
** Job name: Job-1 Model name: Model-1
** Generated by: Abaqus/CAE 2017
*Preprint, echo=NO, model=NO, history=NO, contact=NO
**
** PARTS
**
*Part, name=Part-1
*Node
      1,   131.639908,  -76.7899475,           0.
      2,   131.639908,  -76.7899475,   609.599976
      3,   144.091461,  -49.6327744,           0.
      4,   151.005646,  -20.5682468,           0.
      5,   152.116791,   9.28670692,           0.
      6,   147.382156,   38.7847786,           0.
      7,   136.983719,   66.7923737,           0.
      8,   121.321068,   92.2331772,           0.
      9,   100.996117,   114.129509,           0.
     10,   76.7899475,   131.639908,           0.
     11,   49.6327744,   144.091461,           0.
     12,   20.5682468,   151.005646,           0.
     13,  -9.28670692,   152.116791,           0.
     14,  -38.7847786,   147.382156,           0.
     15,  -66.7923737,   136.983719,           0.
     16,  -92.2331772,   121.321068,           0.
     17,  -114.129509,   100.996117,           0.
     18,  -131.639908,   76.7899475,           0.
     19,  -144.091461,   49.6327744,           0.
     20,  -151.005646,   20.5682468,           0.
** ... 15244 like lines cut
*Element, type=C3D10
    1,   834,   835,   836,   837,  2134,  2133,  2132,  2136,  2135,  2137
    2,   834,   838,   837,   839,  2139,  2138,  2136,  2141,  2140,  2142
    3,   834,   838,   840,   841,  2139,  2144,  2143,  2146,  2145,  2147
    4,   834,   842,   835,   843,  2149,  2148,  2134,  2151,  2150,  2152
    5,   844,   834,   845,   842,  2155,  2154,  2153,  2156,  2149,  2157
    6,   846,   847,   848,   849,  2160,  2159,  2158,  2162,  2161,  2163
    7,   850,   846,   851,   852,  2166,  2165,  2164,  2168,  2167,  2169
    8,   850,   853,   854,   855,  2172,  2171,  2170,  2174,  2173,  2175
    9,   846,   852,   856,   857,  2167,  2177,  2176,  2179,  2178,  2180
   10,   846,   855,   848,   858,  2182,  2181,  2158,  2184,  2183,  2185
   11,   846,   849,   859,   860,  2162,  2187,  2186,  2189,  2188,  2190
   12,   855,   852,   856,   846,  2192,  2177,  2191,  2182,  2167,  2176
   13,   861,   862,   559,   560,  2195,  2194,  2193,  2197,  2196,  2198
   14,   863,   864,   865,   866,  2201,  2200,  2199,  2203,  2202,  2204
   15,   863,   864,   867,   868,  2201,  2206,  2205,  2208,  2207,  2209
   16,   863,   869,   870,   871,  2212,  2211,  2210,  2214,  2213,  2215
   17,   863,   866,   870,   872,  2203,  2216,  2210,  2218,  2217,  2219
   18,   863,   873,   869,   867,  2221,  2220,  2212,  2205,  2222,  2223
   19,   863,   870,   873,   872,  2210,  2224,  2221,  2218,  2219,  2225
   20,   874,   875,   876,   877,  2228,  2227,  2226,  2230,  2229,  2231
** ... 10152 like lines cut
*Nset, nset=Set-1, generate
     1,  15264,      1
*Elset, elset=Set-1, generate
     1,  10172,      1
** Section: Section-1
*Solid Section, elset=Set-1, material=Aluminum-1
,
*End Part
**  
**
** ASSEMBLY
**
*Assembly, name=Assembly
**  
*Instance, name=Part-1-1, part=Part-1
*End Instance
**  
*End Assembly
** 
** MATERIALS
** 
*Material, name=Aluminum-1
*Density
 2.7e-09,
*Elastic
70000., 0.33
** ----------------------------------------------------------------
** 
** STEP: Step-1
** 
*Step, name=Step-1, nlgeom=NO, perturbation
*Frequency, eigensolver=Lanczos, sim=NO, acoustic coupling=on, normalization=displacement
20, , , , , 
** 
** OUTPUT REQUESTS
** 
*Restart, write, frequency=0
** 
** FIELD OUTPUT: F-Output-1
** 
*Output, field, variable=PRESELECT
*End Step
