*Heading
** Job name: barrelvault_s3r_fineirreg Model name: barrelvault_s3r_fineirreg
** Generated by: Abaqus/CAE Student Edition 2020
*Preprint, echo=NO, model=NO, history=NO, contact=NO
**
** PARTS
**
*Part, name=PART-1
*Node
      1,         300.,           0.,           0.
      2,         300.,           0.,        18.75
      3,         300.,           0.,         37.5
      4,         300.,           0.,        56.25
      5,         300.,           0.,          75.
      6,         300.,           0.,        93.75
      7,         300.,           0.,        112.5
      8,         300.,           0.,       131.25
      9,         300.,           0.,         150.
     10,         300.,           0.,      159.375
     11,         300.,           0.,       168.75
     12,         300.,           0.,      178.125
     13,         300.,           0.,        187.5
     14,         300.,           0.,      196.875
     15,         300.,           0.,       206.25
     16,         300.,           0.,      215.625
     17,         300.,           0.,         225.
     18,         300.,           0.,      234.375
     19,         300.,           0.,       243.75
     20,         300.,           0.,      253.125
** ... 541 like lines cut
*Element, type=S3R
   1,    1,  203,  201
   2,    1,    3,  203
   3,    3,  205,  203
   4,    3,    5,  205
   5,    5,  207,  205
   6,    5,    7,  207
   7,    7,  209,  207
   8,    7,    9,  209
   9,    9,  211,  209
  10,    9,   11,  211
  11,   11,  213,  211
  12,   11,   13,  213
  13,   13,  215,  213
  14,   13,   15,  215
  15,   15,  217,  215
  16,   15,   17,  217
  17,   17,  219,  217
  18,   17,   19,  219
  19,   19,  221,  219
  20,   19,   21,  221
** ... 236 like lines cut
*Elset, elset=ROOF
    1,    2,    3,    4,    5,    6,    7,    8,    9,   10,   11,   12,   13,   14,   15,   16
   17,   18,   19,   20,   21,   22,   23,   24,  101,  102,  103,  104,  105,  106,  107,  108
  109,  110,  111,  112,  113,  114,  115,  116,  117,  118,  119,  120,  121,  122,  123,  124
  201,  202,  203,  204,  205,  206,  207,  208,  209,  210,  211,  212,  213,  214,  215,  216
  217,  218,  219,  220,  221,  222,  223,  224,  301,  302,  303,  304,  305,  306,  307,  308
  309,  310,  311,  312,  313,  314,  315,  316,  317,  318,  319,  320,  321,  322,  323,  324
  401,  402,  403,  404,  405,  406,  407,  408,  409,  410,  411,  412,  413,  414,  415,  416
  417,  418,  419,  420,  421,  422,  423,  424,  501,  502,  503,  504,  505,  506,  507,  508
  509,  510,  511,  512,  513,  514,  515,  516,  517,  518,  519,  520,  521,  522,  523,  524
  601,  602,  603,  604,  605,  606,  607,  608,  609,  610,  611,  612,  613,  614,  615,  616
  617,  618,  619,  620,  621,  622,  623,  624,  701,  702,  703,  704,  705,  706,  707,  708
  709,  710,  711,  712,  713,  714,  715,  716,  717,  718,  719,  720,  721,  722,  723,  724
 1001, 1002, 1003, 1004, 1005, 1006, 1007, 1008, 1009, 1010, 1011, 1012, 1013, 1014, 1015, 1016
 1101, 1102, 1103, 1104, 1105, 1106, 1107, 1108, 1109, 1110, 1111, 1112, 1113, 1114, 1115, 1116
 1201, 1202, 1203, 1204, 1205, 1206, 1207, 1208, 1209, 1210, 1211, 1212, 1213, 1214, 1215, 1216
 1301, 1302, 1303, 1304, 1305, 1306, 1307, 1308, 1309, 1310, 1311, 1312, 1313, 1314, 1315, 1316
** Section: Section-1-ROOF
*Shell Section, elset=ROOF, material=STEEL
3., 3
*End Part
**  
**
** ASSEMBLY
**
*Assembly, name=Assembly
**  
*Instance, name=PART-1-1, part=PART-1
*End Instance
**  
*MPC
BEAM, PART-1-1.2409, PART-1-1.1601
BEAM, PART-1-1.2209, PART-1-1.1603
BEAM, PART-1-1.2009, PART-1-1.1605
BEAM, PART-1-1.1809, PART-1-1.1607
*Nset, nset=ALL, instance=PART-1-1
    1,    2,    3,    4,    5,    6,    7,    8,    9,   10,   11,   12,   13,   14,   15,   16
   17,   18,   19,   20,   21,   22,   23,   24,   25,  101,  102,  103,  104,  105,  106,  107
  108,  109,  110,  111,  112,  113,  114,  115,  116,  117,  118,  119,  120,  121,  122,  123
  124,  125,  201,  202,  203,  204,  205,  206,  207,  208,  209,  210,  211,  212,  213,  214
  215,  216,  217,  218,  219,  220,  221,  222,  223,  224,  225,  301,  302,  303,  304,  305
  306,  307,  308,  309,  310,  311,  312,  313,  314,  315,  316,  317,  318,  319,  320,  321
  322,  323,  324,  325,  401,  402,  403,  404,  405,  406,  407,  408,  409,  410,  411,  412
  413,  414,  415,  416,  417,  418,  419,  420,  421,  422,  423,  424,  425,  501,  502,  503
  504,  505,  506,  507,  508,  509,  510,  511,  512,  513,  514,  515,  516,  517,  518,  519
  520,  521,  522,  523,  524,  525,  601,  602,  603,  604,  605,  606,  607,  608,  609,  610
  611,  612,  613,  614,  615,  616,  617,  618,  619,  620,  621,  622,  623,  624,  625,  701
  702,  703,  704,  705,  706,  707,  708,  709,  710,  711,  712,  713,  714,  715,  716,  717
  718,  719,  720,  721,  722,  723,  724,  725,  801,  802,  803,  804,  805,  806,  807,  808
  809,  810,  811,  812,  813,  814,  815,  816,  817,  818,  819,  820,  821,  822,  823,  824
  825,  901,  902,  903,  904,  905,  906,  907,  908,  909,  910,  911,  912,  913,  914,  915
  916,  917,  918,  919,  920,  921,  922,  923,  924,  925, 1001, 1002, 1003, 1004, 1005, 1006
 1007, 1008, 1009, 1010, 1011, 1012, 1013, 1014, 1015, 1016, 1017, 1018, 1019, 1020, 1021, 1022
 1023, 1024, 1025, 1101, 1102, 1103, 1104, 1105, 1106, 1107, 1108, 1109, 1110, 1111, 1112, 1113
 1114, 1115, 1116, 1117, 1118, 1119, 1120, 1121, 1122, 1123, 1124, 1125, 1201, 1202, 1203, 1204
 1205, 1206, 1207, 1208, 1209, 1210, 1211, 1212, 1213, 1214, 1215, 1216, 1217, 1218, 1219, 1220
** ... 16 like lines cut
*Nset, nset=APEX, instance=PART-1-1, generate
  1,  25,   1
*Nset, nset=APEX1, instance=PART-1-1, generate
 1,  9,  1
*Nset, nset=APEX2, instance=PART-1-1, generate
  9,  25,   1
*Nset, nset=CORNER, instance=PART-1-1
    1,    9,   25, 1601, 1609, 1625, 2409, 2425
*Nset, nset=FREE, instance=PART-1-1, generate
 2409,  2425,     1
*Nset, nset=NODES1, instance=PART-1-1, generate
    9,  1609,   100
*Nset, nset=NODES2, instance=PART-1-1, generate
 1609,  1625,     1
*Elset, elset=ROOF1, instance=PART-1-1
 1,
*Nset, nset=SYMM, instance=PART-1-1, generate
   25,  2425,   100
*Nset, nset=SYMM1, instance=PART-1-1, generate
   25,  1625,   100
*Nset, nset=SYMM2, instance=PART-1-1, generate
 1625,  2425,   100
*Nset, nset=WALL, instance=PART-1-1, generate
    1,  1601,   100
*End Assembly
** 
** MATERIALS
** 
*Material, name=STEEL
*Elastic
 3e+06,0.
** 
** BOUNDARY CONDITIONS
** 
** Name: Disp-BC-1 Type: Symmetry/Antisymmetry/Encastre
*Boundary
APEX, YSYMM
** Name: Disp-BC-2 Type: Symmetry/Antisymmetry/Encastre
*Boundary
SYMM, ZSYMM
** Name: Disp-BC-3 Type: Displacement/Rotation
*Boundary
WALL, 1, 1
WALL, 2, 2
** ----------------------------------------------------------------
** 
** STEP: Step-1
** 
*Step, name=Step-1, nlgeom=NO
SELF-WEIGHT
*Static
1., 1., 1e-05, 1.
** 
** LOADS
** 
** Name: BODYFORCE-1   Type: Body force
*Dload
PART-1-1.ROOF, BX, -0.20833
** 
** OUTPUT REQUESTS
** 
*Restart, write, frequency=0
** 
** FIELD OUTPUT: F-Output-1
** 
*Output, field, variable=PRESELECT
** 
** HISTORY OUTPUT: H-Output-1
** 
*Output, history, variable=PRESELECT
*End Step
