*Heading
** Job name: Job-1 Model name: Model-1
** Generated by: Abaqus/CAE 2022
*Preprint, echo=NO, model=NO, history=NO, contact=NO
**
** PARTS
**
*Part, name=Part-1
*Node
      1,          35.,          30.,           0.
      2,   16.5663338,          2.5,           0.
      3,    29.633667,          2.5,           0.
      4,   27.7199993,   7.11999989,           0.
      5,   -29.633667,          2.5,           0.
      6,  -16.5663338,          2.5,           0.
      7,  -27.7199993,   7.11999989,           0.
      8,          35.,          2.5,           0.
      9,         12.5,          2.5,           0.
     10,         12.5,   18.5685158,           0.
     11,          35.,         -25.,           0.
     12,         12.5,       -13.75,           0.
     13,   29.4438744,          30.,   18.9224281
     14,    14.539525,          30.,   31.8371201
     15,   -4.9810195,          30.,   34.6437492
     16,   -22.920126,          30.,   26.4512348
     17,  -33.5822525,          30.,   9.86063957
     18,  -33.5822525,          30.,  -9.86063957
     19,   -22.920126,          30.,  -26.4512348
     20,   -4.9810195,          30.,  -34.6437492
** ... 892 like lines cut
*Element, type=C3D10
  1, 120, 121, 122,  99, 143, 142, 141, 145, 144, 146
  2, 120, 123,  99,  46, 148, 147, 145, 150, 149, 151
  3, 120,  99, 123, 124, 145, 147, 148, 153, 152, 154
  4, 121, 122,  99, 125, 142, 146, 144, 156, 155, 157
  5, 121,  58, 122, 125, 159, 158, 142, 156, 160, 155
  6, 121, 124,  57,  82, 163, 162, 161, 165, 164, 166
  7,  40,  18,   7, 126, 169, 168, 167, 171, 170, 172
  8,  22,  86,  21, 125, 175, 174, 173, 177, 176, 178
  9, 121,  58,  86,  82, 159, 180, 179, 165, 181, 182
 10, 127,  56, 124,  19, 185, 184, 183, 187, 186, 188
 11,  56,  47,  27, 126, 191, 190, 189, 193, 192, 194
 12, 127, 124,  42,  19, 183, 196, 195, 187, 188, 197
 13,  98, 124,  42, 127, 199, 196, 198, 200, 183, 195
 14, 122,  10,  45,   9, 203, 202, 201, 205, 204, 206
 15, 122,  97, 125,  24, 208, 207, 155, 210, 209, 211
 16, 120, 124, 121,  99, 153, 163, 143, 145, 152, 144
 17, 120, 122,  45,  99, 141, 201, 212, 145, 146, 213
 18, 122, 125,  97,  99, 155, 207, 208, 146, 157, 214
 19, 128, 125,  10,  86, 217, 216, 215, 218, 176, 219
 20, 128, 125,   4,  24, 217, 221, 220, 222, 211, 223
** ... 506 like lines cut
*Nset, nset=Set-1
   1,   2,   3,   4,   5,   6,   7,   8,   9,  10,  13,  14,  15,  16,  17,  18
  19,  20,  21,  22,  23,  24,  25,  26,  27,  28,  29,  30,  31,  32,  33,  34
  35,  36,  37,  38,  39,  40,  41,  42,  43,  44,  45,  46,  47,  48,  49,  50
  51,  52,  53,  54,  55,  56,  57,  58,  82,  83,  84,  85,  86,  87,  88,  89
  90,  91,  92,  93,  94,  95,  96,  97,  98,  99, 100, 101, 102, 120, 121, 122
 123, 124, 125, 126, 127, 128, 129, 130, 141, 142, 143, 144, 145, 146, 147, 148
 149, 150, 151, 152, 153, 154, 155, 156, 157, 158, 159, 160, 161, 162, 163, 164
 165, 166, 167, 168, 169, 170, 171, 172, 173, 174, 175, 176, 177, 178, 179, 180
 181, 182, 183, 184, 185, 186, 187, 188, 189, 190, 191, 192, 193, 194, 195, 196
 197, 198, 199, 200, 201, 202, 203, 204, 205, 206, 207, 208, 209, 210, 211, 212
 213, 214, 215, 216, 217, 218, 219, 220, 221, 222, 223, 224, 225, 226, 227, 228
 229, 230, 231, 232, 233, 234, 235, 236, 237, 238, 239, 240, 241, 242, 243, 244
 245, 246, 247, 248, 249, 250, 251, 252, 253, 254, 255, 256, 257, 258, 259, 260
 261, 262, 263, 264, 265, 266, 267, 268, 269, 270, 271, 272, 273, 274, 275, 276
 277, 278, 279, 280, 281, 282, 283, 284, 285, 286, 287, 288, 289, 290, 291, 292
 293, 294, 295, 296, 297, 298, 299, 300, 301, 302, 303, 304, 305, 306, 307, 308
 309, 310, 311, 312, 313, 314, 315, 316, 317, 318, 319, 320, 321, 322, 323, 324
 325, 326, 327, 328, 329, 330, 331, 332, 333, 334, 335, 336, 337, 338, 339, 340
 341, 342, 343, 344, 345, 346, 347, 348, 349, 350, 351, 352, 353, 354, 355, 356
 357, 358, 359, 360, 361, 362, 363, 364, 365, 366, 367, 368, 369, 370, 371, 372
** ... 13 like lines cut
*Elset, elset=Set-1, generate
   1,  266,    1
*Nset, nset=Set-2
   2,   3,   5,   6,   8,   9,  11,  12,  23,  26,  29,  30,  31,  32,  33,  34
  35,  36,  37,  38,  39,  40,  41,  42,  43,  44,  45,  46,  47,  48,  49,  50
  51,  59,  60,  61,  62,  63,  64,  65,  66,  67,  68,  69,  70,  71,  72,  73
  74,  75,  76,  77,  78,  79,  80,  81,  96,  97,  98,  99, 103, 104, 105, 106
 107, 108, 109, 110, 111, 112, 113, 114, 115, 116, 117, 118, 119, 131, 132, 133
 134, 135, 136, 137, 138, 139, 140, 151, 198, 206, 213, 214, 292, 299, 303, 304
 317, 319, 323, 327, 338, 339, 341, 342, 361, 362, 363, 368, 369, 381, 382, 383
 391, 393, 394, 396, 402, 405, 408, 412, 413, 414, 415, 416, 418, 429, 430, 432
 434, 438, 440, 442, 443, 446, 447, 451, 456, 460, 461, 469, 474, 475, 487, 522
 523, 524, 529, 532, 533, 537, 538, 539, 542, 545, 546, 547, 554, 555, 556, 557
 560, 562, 563, 566, 569, 570, 571, 572, 573, 574, 575, 576, 577, 578, 579, 580
 581, 582, 583, 584, 585, 586, 587, 588, 589, 590, 591, 592, 593, 594, 595, 596
 597, 598, 599, 600, 601, 602, 603, 604, 605, 606, 607, 608, 609, 610, 611, 612
 613, 614, 615, 616, 617, 618, 619, 620, 621, 622, 623, 624, 625, 626, 627, 628
 629, 630, 631, 632, 633, 634, 635, 636, 637, 638, 639, 640, 641, 642, 643, 644
 645, 646, 647, 648, 649, 650, 651, 652, 653, 654, 655, 656, 657, 658, 659, 660
 661, 662, 663, 664, 665, 666, 667, 668, 669, 670, 671, 672, 673, 674, 675, 676
 677, 678, 679, 680, 681, 682, 683, 684, 685, 686, 687, 688, 689, 690, 691, 692
 693, 694, 695, 696, 697, 698, 699, 700, 701, 702, 703, 704, 705, 706, 707, 708
 709, 710, 711, 712, 713, 714, 715, 716, 717, 718, 719, 720, 721, 722, 723, 724
** ... 12 like lines cut
*Elset, elset=Set-2, generate
 267,  526,    1
** Section: Section-1
*Solid Section, elset=Set-1, material=Material-1
,
** Section: Section-2
*Solid Section, elset=Set-2, material=Material-2
,
*End Part
**  
**
** ASSEMBLY
**
*Assembly, name=Assembly
**  
*Instance, name=Part-1-1, part=Part-1
*End Instance
**  
*End Assembly
** 
** MATERIALS
** 
*Material, name=Material-1
*Elastic
 2e+06, 0.3
*Material, name=Material-2
*Elastic
70000., 0.34
