*HEADING
LE10NAFEMS: Transverse deflection of elliptical plate with elliptical hole.
*PART, NAME=part1
*END PART
*ASSEMBLY, NAME=ASSEM1
*INSTANCE, NAME=INSTNC1, PART=PART1
*NODE
1,2.83277,1.348,0.0
2,2.48116,1.04837,0.0
3,2.12955,0.748738,0.0
4,3.14146,0.704779,0.0
5,2.33893,0.399071,0.0
6,2.68977,0.374369,0.0
7,3.25,0.0,0.0
8,2.8335,0.0,0.0
9,2.417,0.0,0.0
10,2.83277,1.348,0.15
11,2.48116,1.04837,0.15
12,2.12955,0.748738,0.15
13,2.33841,0.400381,0.15
14,3.14128,0.70533,0.15
15,3.25,0.0,0.15
16,2.8335,0.0,0.15
17,2.417,0.0,0.15
18,2.83277,1.348,0.3
19,2.48116,1.04837,0.3
20,2.12955,0.748738,0.3
** ... 143 like lines cut
*ELEMENT, TYPE =c3d10, ELSET=AllElements
1,1,7,18,3,4,14,10,2,6,11
2,24,18,7,26,23,14,15,25,21,16
3,9,3,26,7,5,13,17,8,6,16
4,20,26,3,18,22,13,12,19,21,11
5,3,7,18,26,6,14,11,13,16,21
6,24,41,18,26,32,31,23,25,33,21
7,35,18,41,37,27,31,38,36,28,40
8,20,37,26,18,29,30,22,19,28,21
9,43,26,37,41,34,30,39,42,33,40
10,18,26,41,37,21,33,31,28,30,40
11,9,26,3,49,17,13,5,48,53,46
12,20,3,26,56,12,13,22,55,50,58
13,45,56,49,3,51,52,47,44,50,46
14,60,49,56,26,54,52,57,59,53,58
15,3,49,26,56,46,53,13,50,52,58
16,20,26,37,56,22,30,29,55,58,61
17,43,37,26,71,39,30,34,70,68,64
18,60,56,71,26,57,63,65,59,58,64
19,67,71,56,37,69,63,62,66,68,61
20,56,26,37,71,58,30,61,63,64,68
** ... 40 like lines cut
*ELEMENT, TYPE =SFM3D6, ELSET=TractionElements
61,41,35,37,38,36,40
62,35,94,37,98,97,36
63,37,43,41,39,42,40
64,43,37,71,39,68,70
65,67,71,37,69,68,66
66,115,67,37,116,66,117
67,96,37,94,99,97,95
68,37,96,115,99,114,117
69,140,96,94,144,95,163
70,94,160,140,162,161,163
71,96,140,115,144,143,114
72,142,115,140,145,143,141
*NSET, NSET=L1
118,
119,
120,
124,
125,
126,
129,
130,
131,
135,
136,
137,
140,
141,
142,
146,
147,
150,
151,
153,
** ... 5 like lines cut
*NSET, NSET=L2
7,
8,
9,
15,
16,
17,
24,
25,
26,
32,
33,
34,
41,
42,
43,
48,
49,
53,
54,
59,
** ... 5 like lines cut
*NSET, NSET=L3
18,
23,
24,
83,
86,
153,
156
*NSET, NSET=L12
1,
24,
35,
83,
146,
160,
18,
72,
7,
41,
94,
153,
10,
76,
15,
23,
38,
27,
86,
89,
** ... 15 like lines cut
*ORIENTATION,NAME=GlobalOrientation
1.0,0.0,0.0,0.0,1.0,0.0
1,0.0
*SOLID SECTION,MATERIAL=elasticity,ORIENTATION =GlobalOrientation,ELSET=AllElements, CONTROLS  =Hourglassctl
*SURFACE SECTION, ELSET=TractionElements
*END INSTANCE
*END ASSEMBLY
*MATERIAL,NAME=elasticity
*ELASTIC,TYPE=ISOTROPIC 
2.1e11,0.3
*SECTION CONTROLS, NAME=Hourglassctl,HOURGLASS=ENHANCED
*STEP,PERTURBATION
*STATIC
*BOUNDARY
ASSEM1.INSTNC1.L1,1,1,0.0
*BOUNDARY
ASSEM1.INSTNC1.L2,2,2,0.0
*BOUNDARY
ASSEM1.INSTNC1.L3,3,3,0.0
*BOUNDARY
ASSEM1.INSTNC1.L12,1,1,0.0
*BOUNDARY
ASSEM1.INSTNC1.L12,2,2,0.0
*DLOAD, follower=NO
ASSEM1.INSTNC1.TractionElements,TRVEC,1.0e6,0.0,0.0,-1.0
*END STEP
