*Heading
** Job name: Job-2 Model name: Model-1
** Generated by: Abaqus/CAE Student Edition 2020
*Preprint, echo=NO, model=NO, history=NO, contact=NO
**
** PARTS
**
*Part, name=Part-1
*Node
      1,          2.5,           0.,           0.
      2,          2.5,           0.,           1.
      3,   2.44882488,  0.503246307,           0.
      4,   2.29739451,  0.985889614,           0.
      5,   2.05190849,   1.42817056,           0.
      6,   1.72241735,   1.81198192,           0.
      7,   1.32240999,   2.12161064,           0.
      8,  0.868263125,   2.34438038,           0.
      9,  0.378569454,    2.4711709,           0.
     10, -0.126622915,   2.49679136,           0.
     11,  -0.62663132,   2.42019272,           0.
     12,  -1.10098541,   2.24451137,           0.
     13,  -1.53026497,   1.97693932,           0.
     14,  -1.89689529,    1.6284312,           0.
     15,  -2.18586659,   1.21325493,           0.
     16,  -2.38534808,  0.748407781,           0.
     17,  -2.48717332,  0.252920806,           0.
     18,  -2.48717332, -0.252920806,           0.
     19,  -2.38534808, -0.748407781,           0.
     20,  -2.18586659,  -1.21325493,           0.
** ... 338 like lines cut
*Element, type=DC3D4
   1, 242, 195, 243, 244
   2, 242, 244, 186, 195
   3, 242, 245, 187,  33
   4, 242, 246,  83, 247
   5, 242, 246, 137,  83
   6, 242, 244, 137,  33
   7,  72, 242,  83, 247
   8, 247, 242, 244,  72
   9, 137, 245, 167, 246
  10, 244,  72, 248, 247
  11, 247, 242, 246, 249
  12, 242, 247, 243, 249
  13, 243, 242, 187, 195
  14, 245, 246, 250, 167
  15, 167,   2, 250, 245
  16, 242,  33, 187, 186
  17, 245,   2, 187,  33
  18, 236, 251, 252, 253
  19, 251, 253, 236, 237
  20, 251, 254, 255, 252
** ... 1298 like lines cut
*Nset, nset=the-region, generate
   1,  358,    1
*Elset, elset=the-region, generate
    1,  1318,     1
*Nset, nset=Top-face
   2,  33,  34,  35,  36,  37,  38,  39,  40,  41,  42,  43,  44,  45,  46,  47
  48,  49,  50,  51,  52,  53,  54,  55,  56,  57,  58,  59,  60,  61,  62, 168
 169, 170, 171, 172, 173, 174, 175, 176, 177, 178, 179, 180, 181, 182, 183, 184
 185, 186, 187, 188, 189, 190, 191, 192, 193, 194, 195, 196, 197, 198, 199, 200
 201, 202, 203, 204, 205, 206, 207, 208, 209, 210, 211, 212, 213, 214, 215, 216
 217, 218, 219, 220, 221, 222, 223, 224, 225, 226, 227, 228, 229, 230, 231, 232
 233, 234, 235, 236, 237, 238, 239, 240, 241
*Nset, nset=bottom-face
   1,   3,   4,   5,   6,   7,   8,   9,  10,  11,  12,  13,  14,  15,  16,  17
  18,  19,  20,  21,  22,  23,  24,  25,  26,  27,  28,  29,  30,  31,  32,  63
  64,  65,  66,  67,  68,  69,  70,  71,  72,  73,  74,  75,  76,  77,  78,  79
  80,  81,  82,  83,  84,  85,  86,  87,  88,  89,  90,  91,  92,  93,  94,  95
  96,  97,  98,  99, 100, 101, 102, 103, 104, 105, 106, 107, 108, 109, 110, 111
 112, 113, 114, 115, 116, 117, 118, 119, 120, 121, 122, 123, 124, 125, 126, 127
 128, 129, 130, 131, 132, 133, 134, 135, 136
*Elset, elset=_top-surface_S3, internal
   16,   17,   37,   49,   59,   75,   97,  140,  144,  279,  280,  317,  339,  340,  345,  385
  418,  419,  422,  438,  440,  445,  449,  450,  453,  487,  515,  521,  533,  534,  543,  544
  548,  550,  599,  601,  621,  624,  625,  627,  630,  633,  661,  662,  671,  679,  682,  690
  721,  731,  734,  751,  754,  763,  774,  778,  780,  789,  794,  795,  799,  802,  805,  809
  815,  816,  818,  821,  822,  829,  832,  836,  837,  839,  841,  846,  847,  848,  854,  855
  857,  861,  863,  874,  875,  877,  883,  886,  895,  898,  900,  901,  903,  904,  908,  917
  918,  923,  924,  925,  930,  931,  932,  934,  937,  939,  942,  950,  962,  964,  981,  984
  991,  997, 1003, 1007, 1014, 1033, 1035, 1046, 1062, 1105, 1123, 1128, 1132, 1134, 1135, 1148
 1149, 1165, 1168, 1182, 1187, 1198, 1203, 1209, 1213, 1219, 1227, 1234, 1241, 1251, 1252, 1257
 1264, 1266, 1275, 1281
*Elset, elset=_top-surface_S4, internal
   71,  161,  358,  697,  771,  872,  995, 1056, 1066, 1144, 1258, 1276
*Elset, elset=_top-surface_S1, internal
  192,  238,  298,  969, 1053, 1161
*Elset, elset=_top-surface_S2, internal
  527,  759,  976,  979,  996, 1017, 1049, 1175, 1248, 1250, 1253
*Surface, type=ELEMENT, name=top-surface
_top-surface_S3, S3
_top-surface_S4, S4
_top-surface_S2, S2
_top-surface_S1, S1
*Elset, elset=_bottom-surface_S3, internal
   62,   72,   73,  105,  132,  134,  168,  175,  198,  206,  234,  282,  312,  315,  324,  326
  360,  381,  425,  496,  501,  511,  545,  546,  552,  557,  558,  596,  660,  688,  703,  720
  742,  746,  753,  762,  782,  834,  849,  862,  893,  919,  921,  926,  927,  928,  943,  945
  955,  974,  975,  988,  990, 1006, 1011, 1015, 1030, 1038, 1042, 1074, 1077, 1079, 1085, 1086
 1089, 1091, 1096, 1102, 1104, 1107, 1110, 1111, 1116, 1120, 1121, 1122, 1125, 1129, 1137, 1140
 1142, 1151, 1153, 1157, 1158, 1167, 1169, 1173, 1174, 1183, 1184, 1189, 1194, 1199, 1200, 1202
 1204, 1205, 1206, 1207, 1211, 1215, 1216, 1217, 1218, 1220, 1221, 1222, 1223, 1224, 1225, 1230
 1231, 1232, 1233, 1237, 1238, 1239, 1242, 1245, 1256, 1260, 1265, 1268, 1270, 1271, 1272, 1274
 1278, 1280, 1282, 1286, 1288, 1289, 1291, 1292, 1293, 1294, 1298, 1299, 1304, 1305, 1308, 1309
 1312, 1313, 1314
*Elset, elset=_bottom-surface_S2, internal
   81,   86,  376,  412,  541,  554,  867,  959, 1087, 1290
*Elset, elset=_bottom-surface_S4, internal
   88,   95,  204,  305,  400,  566,  824, 1083, 1093, 1114, 1212, 1243, 1262, 1287, 1301
*Elset, elset=_bottom-surface_S1, internal
  151,  211,  393,  610, 1088
*Surface, type=ELEMENT, name=bottom-surface
_bottom-surface_S3, S3
_bottom-surface_S2, S2
_bottom-surface_S4, S4
_bottom-surface_S1, S1
*Elset, elset=_side-surface_S3, internal
  117,  159,  192,  260,  268,  358,  379,  397,  424,  455,  560,  583,  584,  586,  602,  603
  628,  675,  681,  696,  698,  728,  737,  744,  747,  750,  766,  768,  803,  828,  840,  920
  956,  961,  973,  986,  989,  998, 1001, 1019, 1021, 1024, 1026, 1027, 1028, 1034, 1036, 1041
 1045, 1049, 1051, 1053, 1054, 1057, 1058, 1059, 1061, 1064, 1066, 1069, 1071, 1072, 1078, 1081
 1088, 1093, 1094, 1095, 1099, 1103, 1126, 1131, 1138, 1141, 1144, 1147, 1152, 1154, 1160, 1161
 1171, 1172, 1175, 1193, 1196, 1247, 1258, 1259, 1269, 1276, 1285, 1287, 1300, 1310, 1316, 1318
*Elset, elset=_side-surface_S1, internal
  198,  552,  554,  767, 1047, 1068, 1098, 1142, 1183, 1282, 1304, 1314
*Elset, elset=_side-surface_S4, internal
  508,  585,  758,  800, 1050, 1159, 1163, 1179, 1185, 1186
*Elset, elset=_side-surface_S2, internal
 1038, 1090, 1162, 1217, 1294, 1296
*Surface, type=ELEMENT, name=side-surface
_side-surface_S3, S3
_side-surface_S1, S1
_side-surface_S4, S4
_side-surface_S2, S2
** Section: the-section
*Solid Section, elset=the-region, material=the-material
,
*End Part
**  
**
** ASSEMBLY
**
*Assembly, name=Assembly
**  
*Instance, name=Part-1-1, part=Part-1
*End Instance
**  
*Nset, nset=the-side, instance=Part-1-1
   1,   2,   3,   4,   5,   6,   7,   8,   9,  10,  11,  12,  13,  14,  15,  16
  17,  18,  19,  20,  21,  22,  23,  24,  25,  26,  27,  28,  29,  30,  31,  32
  33,  34,  35,  36,  37,  38,  39,  40,  41,  42,  43,  44,  45,  46,  47,  48
  49,  50,  51,  52,  53,  54,  55,  56,  57,  58,  59,  60,  61,  62, 137, 138
 139, 140, 141, 142, 143, 144, 145, 146, 147, 148, 149, 150, 151, 152, 153, 154
 155, 156, 157, 158, 159, 160, 161, 162, 163, 164, 165, 166, 167
*Elset, elset=the-side, instance=Part-1-1
  117,  159,  192,  198,  260,  268,  358,  379,  397,  424,  455,  508,  552,  554,  560,  583
  584,  585,  586,  602,  603,  628,  675,  681,  696,  698,  728,  737,  744,  747,  750,  758
  766,  767,  768,  800,  803,  828,  840,  920,  956,  961,  973,  986,  989,  998, 1001, 1019
 1021, 1024, 1026, 1027, 1028, 1034, 1036, 1038, 1041, 1045, 1047, 1049, 1050, 1051, 1053, 1054
 1057, 1058, 1059, 1061, 1064, 1066, 1068, 1069, 1071, 1072, 1078, 1081, 1088, 1090, 1093, 1094
 1095, 1098, 1099, 1103, 1126, 1131, 1138, 1141, 1142, 1144, 1147, 1152, 1154, 1159, 1160, 1161
 1162, 1163, 1171, 1172, 1175, 1179, 1183, 1185, 1186, 1193, 1196, 1217, 1247, 1258, 1259, 1269
 1276, 1282, 1285, 1287, 1294, 1296, 1300, 1304, 1310, 1314, 1316, 1318
*End Assembly
** 
** MATERIALS
** 
*Material, name=the-material
*Conductivity
 1.8,
** ----------------------------------------------------------------
** 
** STEP: the-step
** 
*Step, name=the-step, nlgeom=NO
*Heat Transfer, steady state, deltmx=0.
1., 1., 1e-05, 1., 
** 
** BOUNDARY CONDITIONS
** 
** Name: the-side-BC Type: Temperature
*Boundary
the-side, 11, 11
** 
** LOADS
** 
** Name: the-source   Type: Body heat flux
*Dflux
Part-1-1.the-region, BF, 4.5
** 
** OUTPUT REQUESTS
** 
*Restart, write, frequency=0
** 
** FIELD OUTPUT: F-Output-1
** 
*Output, field, variable=PRESELECT
** 
** HISTORY OUTPUT: the-history
** 
*Output, history
*Contact Output
HFLA, HTL, HTLA, SJD, SJDA, SJDT, SJDTA, WEIGHT
*Radiation Output
FTEMP, RADFL, RADFLA, RADTL, RADTLA, VFTOT
*End Step
