*HEADING
LE10NAFEMS: Transverse deflection of elliptical plate with elliptical hole.
*PART, NAME=part1
*END PART
*ASSEMBLY, NAME=ASSEM1
*INSTANCE, NAME=INSTNC1, PART=PART1
*NODE
1,2.0,0.0,0.0
2,2.0625,0.0,0.0
3,2.125,0.0,0.0
4,2.1875,0.0,0.0
5,2.25,0.0,0.0
6,2.3125,0.0,0.0
7,2.375,0.0,0.0
8,2.4375,0.0,0.0
9,2.5,0.0,0.0
10,2.5625,0.0,0.0
11,2.625,0.0,0.0
12,2.6875,0.0,0.0
13,2.75,0.0,0.0
14,2.8125,0.0,0.0
15,2.875,0.0,0.0
16,2.9375,0.0,0.0
17,3.0,0.0,0.0
18,3.0625,0.0,0.0
19,3.125,0.0,0.0
20,3.1875,0.0,0.0
** ... 34133 like lines cut
*ELEMENT, TYPE =c3d10, ELSET=AllElements
1,2,548,526,527,4726,4727,4728,4729,4730,4731
2,1,547,526,548,4732,4733,4734,4735,4736,4727
3,1,23,22,547,4737,4738,4739,4732,4740,4741
4,2,1,526,548,4742,4734,4728,4726,4735,4727
5,1,2,23,548,4742,4743,4737,4735,4726,4744
6,23,548,547,1,4744,4736,4740,4737,4735,4732
7,527,1073,1051,1052,4745,4746,4747,4748,4749,4750
8,526,1072,1051,1073,4751,4752,4753,4754,4755,4746
9,526,548,547,1072,4727,4736,4733,4751,4756,4757
10,527,526,1051,1073,4731,4753,4747,4745,4754,4746
11,526,527,548,1073,4731,4730,4727,4754,4745,4758
12,548,1073,1072,526,4758,4755,4756,4727,4754,4751
13,1052,1598,1576,1577,4759,4760,4761,4762,4763,4764
14,1051,1597,1576,1598,4765,4766,4767,4768,4769,4760
15,1051,1073,1072,1597,4746,4755,4752,4765,4770,4771
16,1052,1051,1576,1598,4750,4767,4761,4759,4768,4760
17,1051,1052,1073,1598,4750,4749,4746,4768,4759,4772
18,1073,1598,1597,1051,4772,4769,4770,4746,4768,4765
19,1577,2123,2101,2102,4773,4774,4775,4776,4777,4778
20,1576,2122,2101,2123,4779,4780,4781,4782,4783,4774
** ... 23020 like lines cut
*ELEMENT, TYPE =SFM3D6, ELSET=TractionElements
23041,4223,4201,4202,4830,4834,4833
23042,4222,4201,4223,4836,4830,4839
23043,4224,4202,4203,6850,6854,6853
23044,4223,4202,4224,4833,6850,6856
23045,4225,4203,4204,8291,8295,8294
23046,4224,4203,4225,6853,8291,8297
23047,4226,4204,4205,9732,9736,9735
23048,4225,4204,4226,8294,9732,9738
23049,4227,4205,4206,11173,11177,11176
23050,4226,4205,4227,9735,11173,11179
23051,4228,4206,4207,12614,12618,12617
23052,4227,4206,4228,11176,12614,12620
23053,4229,4207,4208,14055,14059,14058
23054,4228,4207,4229,12617,14055,14061
23055,4230,4208,4209,15496,15500,15499
23056,4229,4208,4230,14058,15496,15502
23057,4231,4209,4210,16937,16941,16940
23058,4230,4209,4231,15499,16937,16943
23059,4232,4210,4211,18378,18382,18381
23060,4231,4210,4232,16940,18378,18384
** ... 940 like lines cut
*NSET, NSET=l1
505,
506,
507,
508,
509,
510,
511,
512,
513,
514,
515,
516,
517,
518,
519,
520,
521,
522,
523,
524,
** ... 677 like lines cut
*NSET, NSET=l2
1,
2,
3,
4,
5,
6,
7,
8,
9,
10,
11,
12,
13,
14,
15,
16,
17,
18,
19,
20,
** ... 677 like lines cut
*NSET, NSET=l3
2121,
2142,
2163,
2184,
2205,
2226,
2247,
2268,
2289,
2310,
2331,
2352,
2373,
2394,
2415,
2436,
2457,
2478,
2499,
2520,
** ... 29 like lines cut
*NSET, NSET=l12
21,
42,
63,
84,
105,
126,
147,
168,
189,
210,
231,
252,
273,
294,
315,
336,
357,
378,
399,
420,
** ... 813 like lines cut
*ORIENTATION,NAME=GlobalOrientation
1.0,0.0,0.0,0.0,1.0,0.0
1,0.0
*SOLID SECTION,MATERIAL=elasticity,ORIENTATION =GlobalOrientation,ELSET=AllElements, CONTROLS  =Hourglassctl
*SURFACE SECTION, ELSET=TractionElements
*END INSTANCE
*END ASSEMBLY
*MATERIAL,NAME=elasticity
*ELASTIC,TYPE=ISOTROPIC 
2.1e11,0.3
*SECTION CONTROLS, NAME=Hourglassctl,HOURGLASS=ENHANCED
*STEP,PERTURBATION
*STATIC
*BOUNDARY
ASSEM1.INSTNC1.l1,1
*BOUNDARY
ASSEM1.INSTNC1.l2,2
*BOUNDARY
ASSEM1.INSTNC1.l3,3
*BOUNDARY
ASSEM1.INSTNC1.l12,1
*BOUNDARY
ASSEM1.INSTNC1.l12,2
*DLOAD, follower=NO
ASSEM1.INSTNC1.TractionElements,TRVEC,1.0e6,0.0,0.0,-1.0
*END STEP
