*HEADING
LE10NAFEMS: Transverse deflection of elliptical plate with elliptical hole.
*PART, NAME=part1
*END PART
*ASSEMBLY, NAME=ASSEM1
*INSTANCE, NAME=INSTNC1, PART=PART1
*NODE
1,2.0,0.0,0.0
2,1.9318516525781366,0.25881904510252074,0.0
3,1.7320508075688774,0.49999999999999994,0.0
4,1.4142135623730951,0.7071067811865475,0.0
5,1.0000000000000002,0.8660254037844386,0.0
6,0.5176380902050415,0.9659258262890683,0.0
7,2.25,0.0,0.0
8,2.173333109150404,0.349405710888403,0.0
9,1.948557158514987,0.6749999999999999,0.0
10,1.5909902576697321,0.9545941546018392,0.0
11,1.1250000000000002,1.1691342951089922,0.0
12,0.5823428514806717,1.3039998654902423,0.0
13,2.5,0.0,0.0
14,2.4148145657226707,0.4399923766742853,0.0
15,2.165063509461097,0.85,0.0
16,1.7677669529663689,1.2020815280171309,0.0
17,1.2500000000000002,1.4722431864335457,0.0
18,0.6470476127563018,1.6420739046914163,0.0
19,2.75,0.0,0.0
20,2.6562960222949377,0.5305790424601675,0.0
** ... 106 like lines cut
*ELEMENT, TYPE =c3d8rh, ELSET=AllElements
1,1,7,8,2,43,49,50,44
2,2,8,9,3,44,50,51,45
3,3,9,10,4,45,51,52,46
4,4,10,11,5,46,52,53,47
5,5,11,12,6,47,53,54,48
6,6,12,37,42,48,54,79,84
7,7,13,14,8,49,55,56,50
8,8,14,15,9,50,56,57,51
9,9,15,16,10,51,57,58,52
10,10,16,17,11,52,58,59,53
11,11,17,18,12,53,59,60,54
12,12,18,38,37,54,60,80,79
13,13,19,20,14,55,61,62,56
14,14,20,21,15,56,62,63,57
15,15,21,22,16,57,63,64,58
16,16,22,23,17,58,64,65,59
17,17,23,24,18,59,65,66,60
18,18,24,39,38,60,66,81,80
19,19,25,26,20,61,67,68,62
20,20,26,27,21,62,68,69,63
** ... 40 like lines cut
*ELEMENT, TYPE =SFM3D4, ELSET=TractionElements
61,91,92,86,85
62,92,93,87,86
63,93,94,88,87
64,94,95,89,88
65,95,96,90,89
66,96,121,126,90
67,97,98,92,91
68,98,99,93,92
69,99,100,94,93
70,100,101,95,94
71,101,102,96,95
72,102,122,121,96
73,103,104,98,97
74,104,105,99,98
75,105,106,100,99
76,106,107,101,100
77,107,108,102,101
78,108,123,122,102
79,109,110,104,103
80,110,111,105,104
** ... 10 like lines cut
*NSET, NSET=l1
37,
38,
39,
40,
41,
42,
79,
80,
81,
82,
83,
84,
121,
122,
123,
124,
125,
126
*NSET, NSET=l2
1,
7,
13,
19,
25,
31,
43,
49,
55,
61,
67,
73,
85,
91,
97,
103,
109,
115
*NSET, NSET=l3
73,
74,
75,
76,
77,
78,
83
*NSET, NSET=l12
31,
32,
33,
34,
35,
36,
73,
74,
75,
76,
77,
78,
41,
83,
116,
117,
118,
119,
120,
125,
115
*ORIENTATION,NAME=GlobalOrientation
1.0,0.0,0.0,0.0,1.0,0.0
1,0.0
*SOLID SECTION,MATERIAL=elasticity,ORIENTATION =GlobalOrientation,ELSET=AllElements, CONTROLS  =Hourglassctl
*SURFACE SECTION, ELSET=TractionElements
*END INSTANCE
*END ASSEMBLY
*MATERIAL,NAME=elasticity
*ELASTIC,TYPE=ISOTROPIC 
2.1e11,0.3
*SECTION CONTROLS, NAME=Hourglassctl,HOURGLASS=ENHANCED
*STEP,PERTURBATION
*STATIC
*BOUNDARY
ASSEM1.INSTNC1.l1,1
*BOUNDARY
ASSEM1.INSTNC1.l2,2
*BOUNDARY
ASSEM1.INSTNC1.l3,3
*BOUNDARY
ASSEM1.INSTNC1.l12,1
*BOUNDARY
ASSEM1.INSTNC1.l12,2
*DLOAD, follower=NO
ASSEM1.INSTNC1.TractionElements,TRVEC,1.0e6,0.0,0.0,-1.0
*END STEP
