*HEADING
NAFEMS TEST NLE10, COARSE MESH, C3D10M ELEMENTS  --
**
**RESTART, WRITE, FREQUENCY=1
**
*NODE
       1,     2.83277,       1.348
       2,     2.48116,     1.04837
       3,     2.12955,    0.748738
       4,     3.14146,    0.704779
       5,     2.33893,    0.399071
       6,     2.68977,    0.374369
       7,        3.25,          0.
       8,      2.8335,          0.
       9,       2.417,          0.
      10,     2.83277,       1.348,        0.15
      11,     2.48116,     1.04837,        0.15
      12,     2.12955,    0.748738,        0.15
      13,     2.33841,    0.400381,        0.15
      14,     3.14128,     0.70533,        0.15
      15,        3.25,          0.,        0.15
      16,      2.8335,          0.,        0.15
      17,       2.417,          0.,        0.15
      18,     2.83277,       1.348,         0.3
      19,     2.48116,     1.04837,         0.3
      20,     2.12955,    0.748738,         0.3
** ... 143 like lines cut
**
**
*ELEMENT, TYPE=C3D10M, ELSET=EALL
       1,       1,       7,      18,       3,       4,      14,      10,
       2,       6,      11
       2,      24,      18,       7,      26,      23,      14,      15,
      25,      21,      16
       3,       9,       3,      26,       7,       5,      13,      17,
       8,       6,      16
       4,      20,      26,       3,      18,      22,      13,      12,
      19,      21,      11
       5,       3,       7,      18,      26,       6,      14,      11,
      13,      16,      21
       6,      24,      41,      18,      26,      32,      31,      23,
      25,      33,      21
       7,      35,      18,      41,      37,      27,      31,      38,
      36,      28,      40
       8,      20,      37,      26,      18,      29,      30,      22,
      19,      28,      21
       9,      43,      26,      37,      41,      34,      30,      39,
      42,      33,      40
      10,      18,      26,      41,      37,      21,      33,      31,
      28,      30,      40
** ... 100 like lines cut
**
** eall
**
*SOLID SECTION, ELSET=EALL, MATERIAL=STEEL
          1.,
**
** steel
** Date: 23-May-96           Time: 17:30:54
**
*MATERIAL, NAME=STEEL
**
*ELASTIC, TYPE=ISO
     2.1E+11,         0.3
**
** step  1,Default
**
*NSET,NSET=ZFIX
233,237,104,107,18,23,24
*ELSET,ELSET=EOUT
18,19,17,20
*STEP, AMPLITUDE=RAMP, PERTURBATION
Linear Static Analysis
**
This load case is the default load case that always appears
**
*STATIC
**
** yfix
**
*BOUNDARY
       8, 2,,          0.
       9, 2,,          0.
      16, 2,,          0.
      17, 2,,          0.
      25, 2,,          0.
      26, 2,,          0.
      33, 2,,          0.
      34, 2,,          0.
      42, 2,,          0.
      43, 2,,          0.
      51, 2,,          0.
      52, 2,,          0.
      59, 2,,          0.
      60, 2,,          0.
      68, 2,,          0.
      69, 2,,          0.
      76, 2,,          0.
      77, 2,,          0.
      85, 2,,          0.
      86, 2,,          0.
**
** xfix
**
*BOUNDARY
     173, 1,,          0.
     174, 1,,          0.
     175, 1,,          0.
     182, 1,,          0.
     183, 1,,          0.
     184, 1,,          0.
     190, 1,,          0.
     191, 1,,          0.
     192, 1,,          0.
     199, 1,,          0.
     200, 1,,          0.
     201, 1,,          0.
     207, 1,,          0.
     208, 1,,          0.
     209, 1,,          0.
     217, 1,,          0.
     226, 1,,          0.
     234, 1,,          0.
     243, 1,,          0.
     251, 1,,          0.
**
** curvefix
**
*BOUNDARY
       1, 1,,          0.
       1, 2,,          0.
       4, 1,,          0.
       4, 2,,          0.
       7, 1,,          0.
       7, 2,,          0.
      10, 1,,          0.
      10, 2,,          0.
      14, 1,,          0.
      14, 2,,          0.
      15, 1,,          0.
      15, 2,,          0.
      18, 1,,          0.
      18, 2,,          0.
      23, 1,,          0.
      23, 2,,          0.
      24, 1,,          0.
      24, 2,,          0.
      27, 1,,          0.
      27, 2,,          0.
** ... 50 like lines cut
*BOUNDARY
ZFIX,3,3,0.
**
** load
**
*DLOAD, OP=NEW
       7, P4,       1.E+6
       9, P4,       1.E+6
      17, P2,       1.E+6
      19, P2,       1.E+6
      27, P2,       1.E+6
      29, P2,       1.E+6
      37, P4,       1.E+6
      39, P4,       1.E+6
      47, P2,       1.E+6
      49, P2,       1.E+6
      57, P4,       1.E+6
      59, P4,       1.E+6
**
*NODE PRINT, FREQ=0
U,
*EL PRINT,FREQ=1,ELSET=EOUT,POSITION=AVERAGED AT NODES
S,
**
*EL FILE, POSITION=AVERAGED AT NODES, FREQ=1,ELSET=EOUT
S,
**
*END STEP
