*HEADING
Vibration modes of unit cube  of almost incompressible material.
**The  first six frequencies are rigid body modes.
**The  first nonzero frequency (7) should be around 0.26 Hz
*PART, NAME=part1
*END PART
*ASSEMBLY, NAME=ASSEM1
*INSTANCE, NAME=INSTNC1, PART=PART1
*NODE
1,0.0,0.0,0.0
2,0.2,0.0,0.0
3,0.4,0.0,0.0
4,0.6,0.0,0.0
5,0.8,0.0,0.0
6,1.0,0.0,0.0
7,0.0,0.2,0.0
8,0.2,0.2,0.0
9,0.4,0.2,0.0
10,0.6,0.2,0.0
11,0.8,0.2,0.0
12,1.0,0.2,0.0
13,0.0,0.4,0.0
14,0.2,0.4,0.0
15,0.4,0.4,0.0
16,0.6,0.4,0.0
17,0.8,0.4,0.0
18,1.0,0.4,0.0
19,0.0,0.6,0.0
20,0.2,0.6,0.0
** ... 736 like lines cut
**The hybrid form of the serendipity hexahedron is chosen because
**the material is  nearly incompressible.
*ELEMENT, TYPE =c3d20rh, ELSET=AllElements
1,1,2,8,7,37,38,44,43,217,218,219,220,221,222,223,
224,
225,
226,
227,228
2,37,38,44,43,73,74,80,79,221,222,223,224,229,230,231,
232,
233,
234,
235,236
3,73,74,80,79,109,110,116,115,229,230,231,232,237,238,239,
240,
241,
242,
243,244
4,109,110,116,115,145,146,152,151,237,238,239,240,245,246,247,
248,
249,
250,
251,252
** ... 605 like lines cut
*ORIENTATION,NAME=GlobalOrientation
1.0,0.0,0.0,0.0,1.0,0.0
1,0.0
*SOLID SECTION,MATERIAL=elasticity,ORIENTATION =GlobalOrientation,ELSET=AllElements
*END INSTANCE
*END ASSEMBLY
*MATERIAL,NAME=elasticity
*ELASTIC,TYPE=ISOTROPIC 
1.0,0.499
*DENSITY 
1.0
*STEP
*FREQUENCY, EIGENSOLVER=LANCZOS
20, , ,-1.E6 

*END STEP
